Version 4
SHEET 1 880 680
SYMBOL res 96 -96 R0
SYMATTR InstName R1
TEXT -56 224 Left 0 ;10
TEXT -32 224 Left 0 ;11
TEXT -8 224 Left 0 ;12
TEXT 16 224 Left 0 ;13
TEXT 40 224 Left 0 ;A0
TEXT 64 224 Left 0 ;A1
TEXT 88 224 Left 0 ;A2
TEXT 112 224 Left 0 ;A3
TEXT 136 224 Left 0 ;Vcc
TEXT 160 224 Left 0 ;Rst
TEXT 184 224 Left 0 ;Gnd
TEXT 208 224 Left 0 ;Raw
TEXT -56 56 Left 0 ;·9
TEXT -32 56 Left 0 ;·8
TEXT -8 56 Left 0 ;·7
TEXT 16 56 Left 0 ;·6
TEXT 40 56 Left 0 ;·5
TEXT 64 56 Left 0 ;·4
TEXT 88 56 Left 0 ;·3
TEXT 112 56 Left 0 ;·2
TEXT 136 56 Left 0 ;Gnd
TEXT 160 56 Left 0 ;Rst
TEXT 184 56 Left 0 ;Rxi
TEXT 208 56 Left 0 ;Txo
TEXT 232 80 Left 0 ;Dtr
TEXT 232 104 Left 0 ;TX
TEXT 232 128 Left 0 ;RX
TEXT 232 152 Left 0 ;Vcc
TEXT 232 176 Left 0 ;Gnd
TEXT 232 200 Left 0 ;Gnd
TEXT -24 144 Left 1 ;Arduino Pro Mini 5V 16MHz
TEXT -304 112 Left 0 ;Vcc
TEXT -280 112 Left 0 ;Gnd
TEXT -256 112 Left 0 ;RX
TEXT -232 112 Left 0 ;TX
TEXT -208 112 Left 0 ;Set
TEXT -264 56 Left 1 ;HC-12
TEXT 0 -8 VRight 0 ;.
TEXT 0 -72 VRight 0 ;.
RECTANGLE Normal 230 217 -63 65
RECTANGLE Normal -42 217 -58 233
RECTANGLE Normal -18 217 -34 233
RECTANGLE Normal 6 217 -10 233
RECTANGLE Normal 30 217 14 233
RECTANGLE Normal 54 217 38 233
RECTANGLE Normal 78 217 62 233
RECTANGLE Normal 102 217 86 233
RECTANGLE Normal 126 217 110 233
RECTANGLE Normal 150 217 134 233
RECTANGLE Normal 174 217 158 233
RECTANGLE Normal 198 217 182 233
RECTANGLE Normal 222 217 206 233
RECTANGLE Normal -42 49 -58 65
RECTANGLE Normal -18 49 -34 65
RECTANGLE Normal 6 49 -10 65
RECTANGLE Normal 30 49 14 65
RECTANGLE Normal 54 49 38 65
RECTANGLE Normal 78 49 62 65
RECTANGLE Normal 102 49 86 65
RECTANGLE Normal 126 49 110 65
RECTANGLE Normal 150 49 134 65
RECTANGLE Normal 174 49 158 65
RECTANGLE Normal 198 49 182 65
RECTANGLE Normal 222 49 206 65
RECTANGLE Normal 246 73 230 89
RECTANGLE Normal 246 97 230 113
RECTANGLE Normal 246 121 230 137
RECTANGLE Normal 246 145 230 161
RECTANGLE Normal 246 169 230 185
RECTANGLE Normal 246 193 230 209
RECTANGLE Normal -181 105 -316 14
RECTANGLE Normal -290 105 -306 121
RECTANGLE Normal -266 105 -282 121
RECTANGLE Normal -242 105 -258 121
RECTANGLE Normal -218 105 -234 121
RECTANGLE Normal -194 105 -210 121
RECTANGLE Normal -229 14 -261 -114 2
RECTANGLE Normal -24 -10 24 -58
RECTANGLE Normal 7 6 -9 -10
RECTANGLE Normal 7 -58 -9 -74
CIRCLE Normal -17 -18 15 -50 1
